third_party/pitt/new_R5-12.47-1.glm
clock{
     timezone EST+5EDT;
     timestamp '2000-01-01 0:00:00';
     stoptime '2000-01-01 0:01:00';
}
#set profiler=1
module tape;
module powerflow{
     solver_method NR;
     default_maximum_voltage_error 1e-6;
};

#ifdef WANT_VI_DUMP
object voltdump {
  filename Voltage_Dump_R5-12-47-1.csv;
//  mode polar;
}
object currdump {
  filename Current_Dump_R5-12-47-1.csv;
//  mode polar;
}
#endif
object transformer_configuration {
  name XF1_POLETOP_CS_75;
  power_rating 75.00;
  powerA_rating 0.0;
  powerB_rating 0.0;
  powerC_rating 75.00;
  install_type POLETOP;
  connect_type SINGLE_PHASE_CENTER_TAPPED;
  primary_voltage 7970.0;
  secondary_voltage 120.0;
  resistance 0.00625;
  resistance1 0.01250;
  resistance2 0.01250;
  reactance 0.01352;
  reactance1 0.00676;
  reactance2 0.00676;
  shunt_resistance 238.10;
  shunt_reactance 67.11;
}
object transformer_configuration {
  name XF1_POLETOP_CS_15;
  power_rating 15.00;
  powerA_rating 0.0;
  powerB_rating 0.0;
  powerC_rating 15.00;
  install_type POLETOP;
  connect_type SINGLE_PHASE_CENTER_TAPPED;
  primary_voltage 7970.0;
  secondary_voltage 120.0;
  resistance 0.00850;
  resistance1 0.01700;
  resistance2 0.01700;
  reactance 0.01176;
  reactance1 0.00588;
  reactance2 0.00588;
  shunt_resistance 166.67;
  shunt_reactance 39.53;
}
object transformer_configuration {
  name XF1_POLETOP_BS_100;
  power_rating 100.00;
  powerA_rating 0.0;
  powerB_rating 100.00;
  powerC_rating 0.0;
  install_type POLETOP;
  connect_type SINGLE_PHASE_CENTER_TAPPED;
  primary_voltage 7970.0;
  secondary_voltage 120.0;
  resistance 0.00600;
  resistance1 0.01200;
  resistance2 0.01200;
  reactance 0.01752;
  reactance1 0.00876;
  reactance2 0.00876;
  shunt_resistance 250.00;
  shunt_reactance 68.97;
}
object transformer_configuration {
  name XF1_POLETOP_CS_5;
  power_rating 5.00;
  powerA_rating 0.0;
  powerB_rating 0.0;
  powerC_rating 5.00;
  install_type POLETOP;
  connect_type SINGLE_PHASE_CENTER_TAPPED;
  primary_voltage 7970.0;
  secondary_voltage 120.0;
  resistance 0.01050;
  resistance1 0.02100;
  resistance2 0.02100;
  reactance 0.01224;
  reactance1 0.00612;
  reactance2 0.00612;
  shunt_resistance 111.11;
  shunt_reactance 29.59;
}
object transformer_configuration {
  name XF1_POLETOP_CS_100;
  power_rating 100.00;
  powerA_rating 0.0;
  powerB_rating 0.0;
  powerC_rating 100.00;
  install_type POLETOP;
  connect_type SINGLE_PHASE_CENTER_TAPPED;
  primary_voltage 7970.0;
  secondary_voltage 120.0;
  resistance 0.00600;
  resistance1 0.01200;
  resistance2 0.01200;
  reactance 0.01752;
  reactance1 0.00876;
  reactance2 0.00876;
  shunt_resistance 250.00;
  shunt_reactance 68.97;
}
object transformer_configuration {
  name XF1_POLETOP_AS_5;
  power_rating 5.00;
  powerA_rating 5.00;
  powerB_rating 0.0;
  powerC_rating 0.0;
  install_type POLETOP;
  connect_type SINGLE_PHASE_CENTER_TAPPED;
  primary_voltage 7970.0;
  secondary_voltage 120.0;
  resistance 0.01050;
  resistance1 0.02100;
  resistance2 0.02100;
  reactance 0.01224;
  reactance1 0.00612;
  reactance2 0.00612;
  shunt_resistance 111.11;
  shunt_reactance 29.59;
}
object transformer_configuration {
  name XF1_POLETOP_BS_5;
  power_rating 5.00;
  powerA_rating 0.0;
  powerB_rating 5.00;
  powerC_rating 0.0;
  install_type POLETOP;
  connect_type SINGLE_PHASE_CENTER_TAPPED;
  primary_voltage 7970.0;
  secondary_voltage 120.0;
  resistance 0.01050;
  resistance1 0.02100;
  resistance2 0.02100;
  reactance 0.01224;
  reactance1 0.00612;
  reactance2 0.00612;
  shunt_resistance 111.11;
  shunt_reactance 29.59;
}
object transformer_configuration {
  name XF1_POLETOP_BS_75;
  power_rating 75.00;
  powerA_rating 0.0;
  powerB_rating 75.00;
  powerC_rating 0.0;
  install_type POLETOP;
  connect_type SINGLE_PHASE_CENTER_TAPPED;
  primary_voltage 7970.0;
  secondary_voltage 120.0;
  resistance 0.00625;
  resistance1 0.01250;
  resistance2 0.01250;
  reactance 0.01352;
  reactance1 0.00676;
  reactance2 0.00676;
  shunt_resistance 238.10;
  shunt_reactance 67.11;
}
object transformer_configuration {
  name XF1_POLETOP_CS_37p5;
  power_rating 37.50;
  powerA_rating 0.0;
  powerB_rating 0.0;
  powerC_rating 37.50;
  install_type POLETOP;
  connect_type SINGLE_PHASE_CENTER_TAPPED;
  primary_voltage 7970.0;
  secondary_voltage 120.0;
  resistance 0.00725;
  resistance1 0.01450;
  resistance2 0.01450;
  reactance 0.01320;
  reactance1 0.00660;
  reactance2 0.00660;
  shunt_resistance 212.77;
  shunt_reactance 57.47;
}
object transformer_configuration {
  name XF1_POLETOP_BS_37p5;
  power_rating 37.50;
  powerA_rating 0.0;
  powerB_rating 37.50;
  powerC_rating 0.0;
  install_type POLETOP;
  connect_type SINGLE_PHASE_CENTER_TAPPED;
  primary_voltage 7970.0;
  secondary_voltage 120.0;
  resistance 0.00725;
  resistance1 0.01450;
  resistance2 0.01450;
  reactance 0.01320;
  reactance1 0.00660;
  reactance2 0.00660;
  shunt_resistance 212.77;
  shunt_reactance 57.47;
}
object transformer_configuration {
  name XF1_POLETOP_CS_25;
  power_rating 25.00;
  powerA_rating 0.0;
  powerB_rating 0.0;
  powerC_rating 25.00;
  install_type POLETOP;
  connect_type SINGLE_PHASE_CENTER_TAPPED;
  primary_voltage 7970.0;
  secondary_voltage 120.0;
  resistance 0.00800;
  resistance1 0.01600;
  resistance2 0.01600;
  reactance 0.01208;
  reactance1 0.00604;
  reactance2 0.00604;
  shunt_resistance 192.31;
  shunt_reactance 51.81;
}
object transformer_configuration {
  name XF1_POLETOP_AS_75;
  power_rating 75.00;
  powerA_rating 75.00;
  powerB_rating 0.0;
  powerC_rating 0.0;
  install_type POLETOP;
  connect_type SINGLE_PHASE_CENTER_TAPPED;
  primary_voltage 7970.0;
  secondary_voltage 120.0;
  resistance 0.00625;
  resistance1 0.01250;
  resistance2 0.01250;
  reactance 0.01352;
  reactance1 0.00676;
  reactance2 0.00676;
  shunt_resistance 238.10;
  shunt_reactance 67.11;
}
object transformer_configuration {
  name XF1_POLETOP_BS_15;
  power_rating 15.00;
  powerA_rating 0.0;
  powerB_rating 15.00;
  powerC_rating 0.0;
  install_type POLETOP;
  connect_type SINGLE_PHASE_CENTER_TAPPED;
  primary_voltage 7970.0;
  secondary_voltage 120.0;
  resistance 0.00850;
  resistance1 0.01700;
  resistance2 0.01700;
  reactance 0.01176;
  reactance1 0.00588;
  reactance2 0.00588;
  shunt_resistance 166.67;
  shunt_reactance 39.53;
}
object transformer_configuration {
  name XF1_POLETOP_AS_100;
  power_rating 100.00;
  powerA_rating 100.00;
  powerB_rating 0.0;
  powerC_rating 0.0;
  install_type POLETOP;
  connect_type SINGLE_PHASE_CENTER_TAPPED;
  primary_voltage 7970.0;
  secondary_voltage 120.0;
  resistance 0.00600;
  resistance1 0.01200;
  resistance2 0.01200;
  reactance 0.01752;
  reactance1 0.00876;
  reactance2 0.00876;
  shunt_resistance 250.00;
  shunt_reactance 68.97;
}
object transformer_configuration {
  name XF1_POLETOP_AS_15;
  power_rating 15.00;
  powerA_rating 15.00;
  powerB_rating 0.0;
  powerC_rating 0.0;
  install_type POLETOP;
  connect_type SINGLE_PHASE_CENTER_TAPPED;
  primary_voltage 7970.0;
  secondary_voltage 120.0;
  resistance 0.00850;
  resistance1 0.01700;
  resistance2 0.01700;
  reactance 0.01176;
  reactance1 0.00588;
  reactance2 0.00588;
  shunt_resistance 166.67;
  shunt_reactance 39.53;
}
object transformer_configuration {
  name XF1_POLETOP_AS_167;
  power_rating 167.00;
  powerA_rating 167.00;
  powerB_rating 0.0;
  powerC_rating 0.0;
  install_type POLETOP;
  connect_type SINGLE_PHASE_CENTER_TAPPED;
  primary_voltage 7970.0;
  secondary_voltage 120.0;
  resistance 0.00575;
  resistance1 0.01150;
  resistance2 0.01150;
  reactance 0.02216;
  reactance1 0.01108;
  reactance2 0.01108;
  shunt_resistance 263.16;
  shunt_reactance 60.24;
}
object transformer_configuration {
  name XF1_POLETOP_AS_25;
  power_rating 25.00;
  powerA_rating 25.00;
  powerB_rating 0.0;
  powerC_rating 0.0;
  install_type POLETOP;
  connect_type SINGLE_PHASE_CENTER_TAPPED;
  primary_voltage 7970.0;
  secondary_voltage 120.0;
  resistance 0.00800;
  resistance1 0.01600;
  resistance2 0.01600;
  reactance 0.01208;
  reactance1 0.00604;
  reactance2 0.00604;
  shunt_resistance 192.31;
  shunt_reactance 51.81;
}
object transformer_configuration {
  name XF1_POLETOP_BS_50;
  power_rating 50.00;
  powerA_rating 0.0;
  powerB_rating 50.00;
  powerC_rating 0.0;
  install_type POLETOP;
  connect_type SINGLE_PHASE_CENTER_TAPPED;
  primary_voltage 7970.0;
  secondary_voltage 120.0;
  resistance 0.00650;
  resistance1 0.01300;
  resistance2 0.01300;
  reactance 0.01416;
  reactance1 0.00708;
  reactance2 0.00708;
  shunt_resistance 222.22;
  shunt_reactance 64.94;
}
object transformer_configuration {
  name XF1_POLETOP_CS_50;
  power_rating 50.00;
  powerA_rating 0.0;
  powerB_rating 0.0;
  powerC_rating 50.00;
  install_type POLETOP;
  connect_type SINGLE_PHASE_CENTER_TAPPED;
  primary_voltage 7970.0;
  secondary_voltage 120.0;
  resistance 0.00650;
  resistance1 0.01300;
  resistance2 0.01300;
  reactance 0.01416;
  reactance1 0.00708;
  reactance2 0.00708;
  shunt_resistance 222.22;
  shunt_reactance 64.94;
}
object transformer_configuration {
  name XF1_POLETOP_BS_167;
  power_rating 167.00;
  powerA_rating 0.0;
  powerB_rating 167.00;
  powerC_rating 0.0;
  install_type POLETOP;
  connect_type SINGLE_PHASE_CENTER_TAPPED;
  primary_voltage 7970.0;
  secondary_voltage 120.0;
  resistance 0.00575;
  resistance1 0.01150;
  resistance2 0.01150;
  reactance 0.02216;
  reactance1 0.01108;
  reactance2 0.01108;
  shunt_resistance 263.16;
  shunt_reactance 60.24;
}
object transformer_configuration {
  name XF1_POLETOP_BS_25;
  power_rating 25.00;
  powerA_rating 0.0;
  powerB_rating 25.00;
  powerC_rating 0.0;
  install_type POLETOP;
  connect_type SINGLE_PHASE_CENTER_TAPPED;
  primary_voltage 7970.0;
  secondary_voltage 120.0;
  resistance 0.00800;
  resistance1 0.01600;
  resistance2 0.01600;
  reactance 0.01208;
  reactance1 0.00604;
  reactance2 0.00604;
  shunt_resistance 192.31;
  shunt_reactance 51.81;
}
object transformer_configuration {
  name XF1_POLETOP_BS_10;
  power_rating 10.00;
  powerA_rating 0.0;
  powerB_rating 10.00;
  powerC_rating 0.0;
  install_type POLETOP;
  connect_type SINGLE_PHASE_CENTER_TAPPED;
  primary_voltage 7970.0;
  secondary_voltage 120.0;
  resistance 0.00950;
  resistance1 0.01900;
  resistance2 0.01900;
  reactance 0.01040;
  reactance1 0.00520;
  reactance2 0.00520;
  shunt_resistance 147.06;
  shunt_reactance 34.25;
}
object transformer_configuration {
  name XF1_POLETOP_CS_10;
  power_rating 10.00;
  powerA_rating 0.0;
  powerB_rating 0.0;
  powerC_rating 10.00;
  install_type POLETOP;
  connect_type SINGLE_PHASE_CENTER_TAPPED;
  primary_voltage 7970.0;
  secondary_voltage 120.0;
  resistance 0.00950;
  resistance1 0.01900;
  resistance2 0.01900;
  reactance 0.01040;
  reactance1 0.00520;
  reactance2 0.00520;
  shunt_resistance 147.06;
  shunt_reactance 34.25;
}
object transformer_configuration {
  name XF1_POLETOP_CS_167;
  power_rating 167.00;
  powerA_rating 0.0;
  powerB_rating 0.0;
  powerC_rating 167.00;
  install_type POLETOP;
  connect_type SINGLE_PHASE_CENTER_TAPPED;
  primary_voltage 7970.0;
  secondary_voltage 120.0;
  resistance 0.00575;
  resistance1 0.01150;
  resistance2 0.01150;
  reactance 0.02216;
  reactance1 0.01108;
  reactance2 0.01108;
  shunt_resistance 263.16;
  shunt_reactance 60.24;
}
object transformer_configuration {
  name XF1_POLETOP_AS_50;
  power_rating 50.00;
  powerA_rating 50.00;
  powerB_rating 0.0;
  powerC_rating 0.0;
  install_type POLETOP;
  connect_type SINGLE_PHASE_CENTER_TAPPED;
  primary_voltage 7970.0;
  secondary_voltage 120.0;
  resistance 0.00650;
  resistance1 0.01300;
  resistance2 0.01300;
  reactance 0.01416;
  reactance1 0.00708;
  reactance2 0.00708;
  shunt_resistance 222.22;
  shunt_reactance 64.94;
}
object transformer_configuration {
  name XF1_POLETOP_AS_37p5;
  power_rating 37.50;
  powerA_rating 37.50;
  powerB_rating 0.0;
  powerC_rating 0.0;
  install_type POLETOP;
  connect_type SINGLE_PHASE_CENTER_TAPPED;
  primary_voltage 7970.0;
  secondary_voltage 120.0;
  resistance 0.00725;
  resistance1 0.01450;
  resistance2 0.01450;
  reactance 0.01320;
  reactance1 0.00660;
  reactance2 0.00660;
  shunt_resistance 212.77;
  shunt_reactance 57.47;
}
object transformer_configuration {
  name XF3_POLETOP_ABCN_2500;
  power_rating 2500.00;
  powerA_rating 833.33;
  powerB_rating 833.33;
  powerC_rating 833.33;
  install_type POLETOP;
  connect_type WYE_WYE;
  primary_voltage 13800.0;
  secondary_voltage 480.0;
  resistance 0.00700;
  reactance 0.05710;
  shunt_resistance 285.71;
  shunt_reactance 73.53;
}
object transformer_configuration {
  name XF3_POLETOP_ABCN_112p5;
  power_rating 112.50;
  powerA_rating 37.50;
  powerB_rating 37.50;
  powerC_rating 37.50;
  install_type POLETOP;
  connect_type WYE_WYE;
  primary_voltage 13800.0;
  secondary_voltage 480.0;
  resistance 0.01450;
  reactance 0.02850;
  shunt_resistance 169.49;
  shunt_reactance 33.44;
}
object transformer_configuration {
  name XF1_POLETOP_CN_5;
  power_rating 5.00;
  powerA_rating 0.0;
  powerB_rating 0.0;
  powerC_rating 5.00;
  install_type POLETOP;
  connect_type WYE_WYE;
  primary_voltage 13800.0;
  secondary_voltage 208.0;
  resistance 0.01900;
  reactance 0.01770;
  shunt_resistance 126.58;
  shunt_reactance 22.57;
}
object transformer_configuration {
  name XF3_POLETOP_ABCN_75;
  power_rating 75.00;
  powerA_rating 25.00;
  powerB_rating 25.00;
  powerC_rating 25.00;
  install_type POLETOP;
  connect_type WYE_WYE;
  primary_voltage 13800.0;
  secondary_voltage 208.0;
  resistance 0.01600;
  reactance 0.02420;
  shunt_resistance 158.73;
  shunt_reactance 30.86;
}
object transformer_configuration {
  name XF3_POLETOP_ABCN_225;
  power_rating 225.00;
  powerA_rating 75.00;
  powerB_rating 75.00;
  powerC_rating 75.00;
  install_type POLETOP;
  connect_type WYE_WYE;
  primary_voltage 13800.0;
  secondary_voltage 480.0;
  resistance 0.01300;
  reactance 0.03520;
  shunt_resistance 200.00;
  shunt_reactance 40.00;
}
object transformer_configuration {
  name XF3_POLETOP_ABCN_30;
  power_rating 30.00;
  powerA_rating 10.00;
  powerB_rating 10.00;
  powerC_rating 10.00;
  install_type POLETOP;
  connect_type WYE_WYE;
  primary_voltage 13800.0;
  secondary_voltage 208.0;
  resistance 0.01900;
  reactance 0.01770;
  shunt_resistance 126.58;
  shunt_reactance 22.57;
}
object transformer_configuration {
  name XF3_POLETOP_ABCN_300;
  power_rating 300.00;
  powerA_rating 100.00;
  powerB_rating 100.00;
  powerC_rating 100.00;
  install_type POLETOP;
  connect_type WYE_WYE;
  primary_voltage 13800.0;
  secondary_voltage 480.0;
  resistance 0.01300;
  reactance 0.04830;
  shunt_resistance 217.39;
  shunt_reactance 44.44;
}
object transformer_configuration {
  name XF3_PADMOUNT_ABCN_225;
  power_rating 225.00;
  powerA_rating 75.00;
  powerB_rating 75.00;
  powerC_rating 75.00;
  install_type PADMOUNT;
  connect_type WYE_WYE;
  primary_voltage 13800.0;
  secondary_voltage 480.0;
  resistance 0.01300;
  reactance 0.03520;
  shunt_resistance 200.00;
  shunt_reactance 40.00;
}
object transformer_configuration {
  name XF3_POLETOP_ABCN_150;
  power_rating 150.00;
  powerA_rating 50.00;
  powerB_rating 50.00;
  powerC_rating 50.00;
  install_type POLETOP;
  connect_type WYE_WYE;
  primary_voltage 13800.0;
  secondary_voltage 480.0;
  resistance 0.01300;
  reactance 0.03250;
  shunt_resistance 185.19;
  shunt_reactance 36.36;
}
object transformer_configuration {
  name XF2_POLETOP_ACN_30;
  power_rating 30.00;
  powerA_rating 15.00;
  powerB_rating 0.0;
  powerC_rating 15.00;
  install_type POLETOP;
  connect_type WYE_WYE;
  primary_voltage 13800.0;
  secondary_voltage 208.0;
  resistance 0.01900;
  reactance 0.01770;
  shunt_resistance 126.58;
  shunt_reactance 22.57;
}
object transformer_configuration {
  name XF1_POLETOP_AN_5;
  power_rating 5.00;
  powerA_rating 5.00;
  powerB_rating 0.0;
  powerC_rating 0.0;
  install_type POLETOP;
  connect_type WYE_WYE;
  primary_voltage 13800.0;
  secondary_voltage 208.0;
  resistance 0.01900;
  reactance 0.01770;
  shunt_resistance 126.58;
  shunt_reactance 22.57;
}
object transformer_configuration {
  name XF1_POLETOP_BN_15;
  power_rating 15.00;
  powerA_rating 0.0;
  powerB_rating 15.00;
  powerC_rating 0.0;
  install_type POLETOP;
  connect_type WYE_WYE;
  primary_voltage 13800.0;
  secondary_voltage 208.0;
  resistance 0.01900;
  reactance 0.01770;
  shunt_resistance 126.58;
  shunt_reactance 22.57;
}
object transformer_configuration {
  name XF1_POLETOP_BN_25;
  power_rating 25.00;
  powerA_rating 0.0;
  powerB_rating 25.00;
  powerC_rating 0.0;
  install_type POLETOP;
  connect_type WYE_WYE;
  primary_voltage 13800.0;
  secondary_voltage 208.0;
  resistance 0.01900;
  reactance 0.01770;
  shunt_resistance 126.58;
  shunt_reactance 22.57;
}
object transformer_configuration {
  name XF2_POLETOP_ABN_30;
  power_rating 30.00;
  powerA_rating 15.00;
  powerB_rating 15.00;
  powerC_rating 0.0;
  install_type POLETOP;
  connect_type WYE_WYE;
  primary_voltage 13800.0;
  secondary_voltage 208.0;
  resistance 0.01900;
  reactance 0.01770;
  shunt_resistance 126.58;
  shunt_reactance 22.57;
}
object transformer_configuration {
  name XF2_POLETOP_ACN_75;
  power_rating 75.00;
  powerA_rating 37.50;
  powerB_rating 0.0;
  powerC_rating 37.50;
  install_type POLETOP;
  connect_type WYE_WYE;
  primary_voltage 13800.0;
  secondary_voltage 208.0;
  resistance 0.01600;
  reactance 0.02420;
  shunt_resistance 158.73;
  shunt_reactance 30.86;
}
object transformer_configuration {
  name XF3_POLETOP_ABCN_500;
  power_rating 500.00;
  powerA_rating 166.67;
  powerB_rating 166.67;
  powerC_rating 166.67;
  install_type POLETOP;
  connect_type WYE_WYE;
  primary_voltage 13800.0;
  secondary_voltage 480.0;
  resistance 0.01100;
  reactance 0.04880;
  shunt_resistance 222.22;
  shunt_reactance 44.25;
}
object transformer_configuration {
  name XF3_POLETOP_ABCN_750;
  power_rating 750.00;
  powerA_rating 250.00;
  powerB_rating 250.00;
  powerC_rating 250.00;
  install_type POLETOP;
  connect_type WYE_WYE;
  primary_voltage 13800.0;
  secondary_voltage 480.0;
  resistance 0.00970;
  reactance 0.05110;
  shunt_resistance 227.27;
  shunt_reactance 52.91;
}
object transformer_configuration {
  name XF2_POLETOP_BCN_30;
  power_rating 30.00;
  powerA_rating 0.0;
  powerB_rating 15.00;
  powerC_rating 15.00;
  install_type POLETOP;
  connect_type WYE_WYE;
  primary_voltage 13800.0;
  secondary_voltage 208.0;
  resistance 0.01900;
  reactance 0.01770;
  shunt_resistance 126.58;
  shunt_reactance 22.57;
}
object regulator_configuration {
  name feeder_reg_cfg;
  Control OUTPUT_VOLTAGE;
  band_center 8300.0;
  band_width 132;
  connect_type WYE_WYE;
  time_delay 30;
  raise_taps 16;
  lower_taps 16;
  regulation 0.10;
  tap_pos_A 0;
  tap_pos_B 0;
  tap_pos_C 0;
}
object overhead_line_conductor {
  name ID_657;
  rating.summer.continuous 266.0;
  geometric_mean_radius 0.01142 ft;
  resistance 0.95300;
}
object overhead_line_conductor {
  name ID_658;
  rating.summer.continuous 531.0;
  geometric_mean_radius 0.02240 ft;
  resistance 0.30600;
}
object overhead_line_conductor {
  name ID_659;
  rating.summer.continuous 891.0;
  geometric_mean_radius 0.03550 ft;
  resistance 0.14420;
}
object overhead_line_conductor {
  name ID_660;
  rating.summer.continuous 149.0;
  geometric_mean_radius 0.00663 ft;
  resistance 1.50000;
}
object overhead_line_conductor {
  name ID_661;
  rating.summer.continuous 256.0;
  geometric_mean_radius 0.01200 ft;
  resistance 0.16600;
}
object line_spacing {
  name ID_85;
  distance_AB 12.0 in;
  distance_BC 12.0 in;
  distance_AC 12.0 in;
  distance_AN 360.0 in;
  distance_BN 360.0 in;
  distance_CN 360.0 in;
}
object line_spacing {
  name ID_86;
  distance_AB 53.19999999996 in;
  distance_BC 53.19999999996 in;
  distance_AC 53.19999999996 in;
  distance_AN 69.80000000004 in;
  distance_BN 69.80000000004 in;
  distance_CN 69.80000000004 in;
}
object line_spacing {
  name ID_87;
  distance_AB 60.50000000004 in;
  distance_BC 60.50000000004 in;
  distance_AC 60.50000000004 in;
  distance_AN 84.6 in;
  distance_BN 84.6 in;
  distance_CN 84.6 in;
}
object line_spacing {
  name ID_88;
  distance_CN 69.99999999996 in;
}
object line_spacing {
  name ID_89;
  distance_CN 69.99999999996 in;
}
object line_spacing {
  name ID_90;
  distance_BN 69.99999999996 in;
}
object line_spacing {
  name ID_91;
  distance_BC 48.0 in;
  distance_BN 20.79999999996 in;
  distance_CN 20.79999999996 in;
}
object line_spacing {
  name ID_92;
  distance_AB 65.90000000004 in;
  distance_BC 65.90000000004 in;
  distance_AC 65.90000000004 in;
  distance_AN 75.50000000004 in;
  distance_BN 75.50000000004 in;
  distance_CN 75.50000000004 in;
}
object line_spacing {
  name ID_93;
  distance_AN 69.99999999996 in;
}
object line_spacing {
  name ID_94;
  distance_AB 53.19999999996 in;
  distance_BC 53.19999999996 in;
  distance_AC 53.19999999996 in;
  distance_AN 80.49999999996 in;
  distance_BN 80.49999999996 in;
  distance_CN 80.49999999996 in;
}
object line_spacing {
  name ID_95;
  distance_AC 111.99999999996 in;
  distance_AN 19.29999999996 in;
  distance_CN 19.29999999996 in;
}
object line_spacing {
  name ID_96;
  distance_CN 360.0 in;
}
object line_spacing {
  name ID_97;
  distance_AC 48.0 in;
  distance_AN 20.79999999996 in;
  distance_CN 20.79999999996 in;
}
object line_spacing {
  name ID_98;
  distance_BC 111.99999999996 in;
  distance_BN 19.89999999996 in;
  distance_CN 19.89999999996 in;
}
object line_spacing {
  name ID_99;
  distance_AB 48.0 in;
  distance_AN 20.79999999996 in;
  distance_BN 20.79999999996 in;
}
object line_spacing {
  name ID_100;
  distance_AB 111.99999999996 in;
  distance_AN 19.89999999996 in;
  distance_BN 19.89999999996 in;
}
object line_spacing {
  name ID_101;
  distance_BN 69.99999999996 in;
}
object line_spacing {
  name ID_102;
  distance_BN 360.0 in;
}
object line_configuration {
  name ID_57;
  conductor_A ID_1727;
  conductor_B ID_1727;
  conductor_C ID_1727;
  conductor_N ID_1727;
  spacing ID_85;
}
object line_configuration {
  name ID_58;
  conductor_A ID_657;
  conductor_B ID_657;
  conductor_C ID_657;
  conductor_N ID_657;
  spacing ID_86;
}
object line_configuration {
  name ID_59;
  conductor_A ID_657;
  conductor_B ID_657;
  conductor_C ID_657;
  conductor_N ID_657;
  spacing ID_87;
}
object line_configuration {
  name ID_60;
  conductor_C ID_657;
  conductor_N ID_657;
  spacing ID_88;
}
object line_configuration {
  name ID_61;
  conductor_C ID_657;
  conductor_N ID_657;
  spacing ID_89;
}
object line_configuration {
  name ID_62;
  conductor_B ID_657;
  conductor_N ID_657;
  spacing ID_90;
}
object line_configuration {
  name ID_63;
  conductor_B ID_657;
  conductor_C ID_657;
  conductor_N ID_657;
  spacing ID_91;
}
object line_configuration {
  name ID_64;
  conductor_A ID_657;
  conductor_B ID_657;
  conductor_C ID_657;
  conductor_N ID_657;
  spacing ID_92;
}
object line_configuration {
  name ID_65;
  conductor_A ID_658;
  conductor_B ID_658;
  conductor_C ID_658;
  conductor_N ID_658;
  spacing ID_92;
}
object line_configuration {
  name ID_66;
  conductor_A ID_659;
  conductor_B ID_659;
  conductor_C ID_659;
  conductor_N ID_659;
  spacing ID_87;
}
object line_configuration {
  name ID_67;
  conductor_C ID_660;
  conductor_N ID_660;
  spacing ID_88;
}
object line_configuration {
  name ID_68;
  conductor_A ID_1728;
  conductor_B ID_1728;
  conductor_C ID_1728;
  conductor_N ID_1728;
  spacing ID_85;
}
object line_configuration {
  name ID_69;
  conductor_A ID_659;
  conductor_B ID_659;
  conductor_C ID_659;
  conductor_N ID_659;
  spacing ID_92;
}
object line_configuration {
  name ID_70;
  conductor_A ID_658;
  conductor_B ID_658;
  conductor_C ID_658;
  conductor_N ID_658;
  spacing ID_92;
}
object line_configuration {
  name ID_71;
  conductor_A ID_659;
  conductor_B ID_659;
  conductor_C ID_659;
  conductor_N ID_659;
  spacing ID_87;
}
object line_configuration {
  name ID_72;
  conductor_A ID_657;
  conductor_N ID_657;
  spacing ID_93;
}
object line_configuration {
  name ID_73;
  conductor_A ID_661;
  conductor_B ID_661;
  conductor_C ID_661;
  conductor_N ID_661;
  spacing ID_94;
}
object line_configuration {
  name ID_74;
  conductor_A ID_657;
  conductor_C ID_657;
  conductor_N ID_657;
  spacing ID_95;
}
object line_configuration {
  name ID_75;
  conductor_B ID_660;
  conductor_N ID_660;
  spacing ID_90;
}
object line_configuration {
  name ID_76;
  conductor_C ID_1729;
  conductor_N ID_1729;
  spacing ID_96;
}
object line_configuration {
  name ID_77;
  conductor_A ID_657;
  conductor_C ID_657;
  conductor_N ID_657;
  spacing ID_97;
}
object line_configuration {
  name ID_78;
  conductor_B ID_657;
  conductor_C ID_657;
  conductor_N ID_657;
  spacing ID_98;
}
object line_configuration {
  name ID_79;
  conductor_A ID_657;
  conductor_B ID_657;
  conductor_N ID_657;
  spacing ID_99;
}
object line_configuration {
  name ID_80;
  conductor_A ID_657;
  conductor_B ID_657;
  conductor_N ID_657;
  spacing ID_100;
}
object line_configuration {
  name ID_81;
  conductor_B ID_659;
  conductor_N ID_659;
  spacing ID_101;
}
object line_configuration {
  name ID_82;
  conductor_A ID_1729;
  conductor_B ID_1729;
  conductor_C ID_1729;
  conductor_N ID_1729;
  spacing ID_85;
}
object line_configuration {
  name ID_83;
  conductor_B ID_1729;
  conductor_N ID_1729;
  spacing ID_102;
}
object line_configuration {
  name ID_84;
  conductor_A ID_1730;
  conductor_B ID_1730;
  conductor_C ID_1730;
  conductor_N ID_1730;
  spacing ID_85;
}
object triplex_line_conductor {
  name triplex_4/0 AA;
  resistance 0.48;
  geometric_mean_radius 0.0158;
  rating.summer.continuous 1000.0;
  rating.summer.emergency 1000.0;
  rating.winter.continuous 1000.0;
  rating.winter.emergency 1000.0;
}
object triplex_line_configuration {
  name ID_974;
  conductor_1 triplex_4/0 AA;
  conductor_2 triplex_4/0 AA;
  conductor_N triplex_4/0 AA;
  insulation_thickness 0.08;
  diameter 0.522;
}
object underground_line_conductor {
  name ID_1727;
  rating.summer.continuous 214.0;
  outer_diameter 1.32;
  conductor_gmr 0.0177 ft;
  conductor_diameter 0.528;
  conductor_resistance 0.433488;
  neutral_gmr 0.00208 ft;
  neutral_resistance 14.87;
  neutral_diameter 0.0641;
  neutral_strands 11.0;
  insulation_relative_permitivitty 2.3;
}
object underground_line_conductor {
  name ID_1728;
  rating.summer.continuous 775.0;
  outer_diameter 1.87;
  conductor_gmr 0.0371 ft;
  conductor_diameter 1.15;
  conductor_resistance 0.1162;
  shield_gmr 0.069167;
  shield_resistance 2.0135;
  shield_thickness 0.005;
  shield_diameter 1.66;
  insulation_relative_permitivitty 2.3;
}
object underground_line_conductor {
  name ID_1729;
  rating.summer.continuous 142.0;
  outer_diameter 1.27;
  conductor_gmr 0.01142 ft;
  conductor_diameter 0.362;
  conductor_resistance 0.88704;
  neutral_gmr 0.00208 ft;
  neutral_resistance 14.87;
  neutral_diameter 0.0641;
  neutral_strands 16.0;
  insulation_relative_permitivitty 2.3;
}
object underground_line_conductor {
  name ID_1730;
  rating.summer.continuous 112.0;
  outer_diameter 1.09;
  conductor_gmr 0.0088 ft;
  conductor_diameter 0.292;
  conductor_resistance 1.38336;
  neutral_gmr 0.00208 ft;
  neutral_resistance 14.87;
  neutral_diameter 0.0641;
  neutral_strands 6.0;
  insulation_relative_permitivitty 2.3;
}
object fuse {
  name R5_12_47_1_fuse_1;
// downstream 1949.96 kva on ABC
  phases ABCN;
  from R5_12_47_1_node_4;
  to R5_12_47_1_node_3;
  current_limit 280;
  status CLOSED;
  mean_replacement_time 3600;
}
object fuse {
  name R5_12_47_1_fuse_2;
// downstream 9.32 kva on CS
  phases CN;
  from R5_12_47_1_node_7;
  to R5_12_47_1_node_8;
  current_limit 40;
  status CLOSED;
  mean_replacement_time 3600;
}
object fuse {
  name R5_12_47_1_fuse_3;
// downstream 60.81 kva on BS
  phases BN;
  from R5_12_47_1_node_16;
  to R5_12_47_1_node_17;
  current_limit 40;
  status CLOSED;
  mean_replacement_time 3600;
}
object fuse {
  name R5_12_47_1_fuse_4;
// downstream 26.20 kva on CS
  phases CN;
  from R5_12_47_1_node_19;
  to R5_12_47_1_node_20;
  current_limit 40;
  status CLOSED;
  mean_replacement_time 3600;
}
object fuse {
  name R5_12_47_1_fuse_5;
// downstream 24.88 kva on BS
  phases BN;
  from R5_12_47_1_node_31;
  to R5_12_47_1_node_30;
  current_limit 40;
  status CLOSED;
  mean_replacement_time 3600;
}
object fuse {
  name R5_12_47_1_fuse_6;
// downstream 435.57 kva on ABC
  phases ABCN;
  from R5_12_47_1_node_56;
  to R5_12_47_1_node_54;
  current_limit 65;
  status CLOSED;
  mean_replacement_time 3600;
}
object fuse {
  name R5_12_47_1_fuse_7;
// downstream 134.45 kva on ABC
  phases ABCN;
  from R5_12_47_1_node_13;
  to R5_12_47_1_node_57;
  current_limit 40;
  status CLOSED;
  mean_replacement_time 3600;
}
object fuse {
  name R5_12_47_1_fuse_8;
// downstream 108.31 kva on ABC
  phases ABCN;
  from R5_12_47_1_node_65;
  to R5_12_47_1_node_66;
  current_limit 40;
  status CLOSED;
  mean_replacement_time 3600;
}
object fuse {
  name R5_12_47_1_fuse_9;
// downstream 306.20 kva on ABCS
  phases ABCN;
  from R5_12_47_1_node_70;
  to R5_12_47_1_node_72;
  current_limit 40;
  status CLOSED;
  mean_replacement_time 3600;
}
object fuse {
  name R5_12_47_1_fuse_10;
// downstream 2942.98 kva on ABCS
  phases ABCN;
  from R5_12_47_1_node_73;
  to R5_12_47_1_node_76;
  current_limit 400;
  status CLOSED;
  mean_replacement_time 3600;
}
object fuse {
  name R5_12_47_1_fuse_11;
// downstream 172.05 kva on ACS
  phases ACN;
  from R5_12_47_1_node_103;
  to R5_12_47_1_node_85;
  current_limit 40;
  status CLOSED;
  mean_replacement_time 3600;
}
object fuse {
  name R5_12_47_1_fuse_12;
// downstream 71.06 kva on AS
  phases AN;
  from R5_12_47_1_node_87;
  to R5_12_47_1_node_88;
  current_limit 40;
  status CLOSED;
  mean_replacement_time 3600;
}
object fuse {
  name R5_12_47_1_fuse_13;
// downstream 34.89 kva on CS
  phases CN;
  from R5_12_47_1_node_101;
  to R5_12_47_1_node_93;
  current_limit 40;
  status CLOSED;
  mean_replacement_time 3600;
}
object fuse {
  name R5_12_47_1_fuse_14;
// downstream 89.56 kva on BS
  phases BN;
  from R5_12_47_1_node_96;
  to R5_12_47_1_node_97;
  current_limit 40;
  status CLOSED;
  mean_replacement_time 3600;
}
object fuse {
  name R5_12_47_1_fuse_15;
// downstream 14.88 kva on AS
  phases AN;
  from R5_12_47_1_node_99;
  to R5_12_47_1_node_100;
  current_limit 40;
  status CLOSED;
  mean_replacement_time 3600;
}
object fuse {
  name R5_12_47_1_fuse_16;
// downstream 319.07 kva on BCS
  phases BCN;
  from R5_12_47_1_node_139;
  to R5_12_47_1_node_121;
  current_limit 65;
  status CLOSED;
  mean_replacement_time 3600;
}
object fuse {
  name R5_12_47_1_fuse_17;
// downstream 477.43 kva on CS
  phases CN;
  from R5_12_47_1_node_161;
  to R5_12_47_1_node_138;
  current_limit 200;
  status CLOSED;
  mean_replacement_time 3600;
}
object fuse {
  name R5_12_47_1_fuse_18;
// downstream 50.11 kva on CS
  phases CN;
  from R5_12_47_1_node_150;
  to R5_12_47_1_node_151;
  current_limit 40;
  status CLOSED;
  mean_replacement_time 3600;
}
object fuse {
  name R5_12_47_1_fuse_19;
// downstream 374.70 kva on BS
  phases BN;
  from R5_12_47_1_node_169;
  to R5_12_47_1_node_155;
  current_limit 200;
  status CLOSED;
  mean_replacement_time 3600;
}
object fuse {
  name R5_12_47_1_fuse_20;
// downstream 113.34 kva on BS
  phases BN;
  from R5_12_47_1_node_157;
  to R5_12_47_1_node_158;
  current_limit 40;
  status CLOSED;
  mean_replacement_time 3600;
}
object fuse {
  name R5_12_47_1_fuse_21;
// downstream 62.24 kva on AC
  phases ACN;
  from R5_12_47_1_node_167;
  to R5_12_47_1_node_168;
  current_limit 40;
  status CLOSED;
  mean_replacement_time 3600;
}
object fuse {
  name R5_12_47_1_fuse_22;
// downstream 140.37 kva on CS
  phases CN;
  from R5_12_47_1_node_42;
  to R5_12_47_1_node_174;
  current_limit 65;
  status CLOSED;
  mean_replacement_time 3600;
}
object fuse {
  name R5_12_47_1_fuse_23;
// downstream 254.04 kva on CS
  phases CN;
  from R5_12_47_1_node_47;
  to R5_12_47_1_node_180;
  current_limit 100;
  status CLOSED;
  mean_replacement_time 3600;
}
object fuse {
  name R5_12_47_1_fuse_24;
// downstream 132.08 kva on ABCS
  phases ABCN;
  from R5_12_47_1_node_29;
  to R5_12_47_1_node_181;
  current_limit 40;
  status CLOSED;
  mean_replacement_time 3600;
}
object fuse {
  name R5_12_47_1_fuse_25;
// downstream 111.19 kva on BS
  phases BN;
  from R5_12_47_1_node_102;
  to R5_12_47_1_node_190;
  current_limit 40;
  status CLOSED;
  mean_replacement_time 3600;
}
object fuse {
  name R5_12_47_1_fuse_26;
// downstream 204.95 kva on BS
  phases BN;
  from R5_12_47_1_node_106;
  to R5_12_47_1_node_191;
  current_limit 65;
  status CLOSED;
  mean_replacement_time 3600;
}
object fuse {
  name R5_12_47_1_fuse_27;
// downstream 136.70 kva on CS
  phases CN;
  from R5_12_47_1_node_110;
  to R5_12_47_1_node_195;
  current_limit 65;
  status CLOSED;
  mean_replacement_time 3600;
}
object fuse {
  name R5_12_47_1_fuse_28;
// downstream 342.40 kva on ACS
  phases ACN;
  from R5_12_47_1_node_143;
  to R5_12_47_1_node_203;
  current_limit 65;
  status CLOSED;
  mean_replacement_time 3600;
}
object fuse {
  name R5_12_47_1_fuse_29;
// downstream 160.82 kva on CS
  phases CN;
  from R5_12_47_1_node_142;
  to R5_12_47_1_node_207;
  current_limit 65;
  status CLOSED;
  mean_replacement_time 3600;
}
object fuse {
  name R5_12_47_1_fuse_30;
// downstream 297.93 kva on BS
  phases BN;
  from R5_12_47_1_node_141;
  to R5_12_47_1_node_211;
  current_limit 100;
  status CLOSED;
  mean_replacement_time 3600;
}
object fuse {
  name R5_12_47_1_fuse_31;
// downstream 67.13 kva on AS
  phases AN;
  from R5_12_47_1_node_140;
  to R5_12_47_1_node_214;
  current_limit 40;
  status CLOSED;
  mean_replacement_time 3600;
}
object fuse {
  name R5_12_47_1_fuse_32;
// downstream 136.34 kva on CS
  phases CN;
  from R5_12_47_1_node_6;
  to R5_12_47_1_node_217;
  current_limit 65;
  status CLOSED;
  mean_replacement_time 3600;
}
object fuse {
  name R5_12_47_1_fuse_33;
// downstream 321.19 kva on ABS
  phases ABN;
  from R5_12_47_1_node_137;
  to R5_12_47_1_node_223;
  current_limit 65;
  status CLOSED;
  mean_replacement_time 3600;
}
object fuse {
  name R5_12_47_1_fuse_34;
// downstream 317.96 kva on AS
  phases AN;
  from R5_12_47_1_node_135;
  to R5_12_47_1_node_227;
  current_limit 100;
  status CLOSED;
  mean_replacement_time 3600;
}
object fuse {
  name R5_12_47_1_fuse_35;
// downstream 135.06 kva on CS
  phases CN;
  from R5_12_47_1_node_125;
  to R5_12_47_1_node_231;
  current_limit 65;
  status CLOSED;
  mean_replacement_time 3600;
}
object fuse {
  name R5_12_47_1_fuse_36;
// downstream 139.40 kva on BS
  phases BN;
  from R5_12_47_1_node_148;
  to R5_12_47_1_node_232;
  current_limit 65;
  status CLOSED;
  mean_replacement_time 3600;
}
object fuse {
  name R5_12_47_1_fuse_37;
// downstream 199.32 kva on AS
  phases AN;
  from R5_12_47_1_node_144;
  to R5_12_47_1_node_233;
  current_limit 65;
  status CLOSED;
  mean_replacement_time 3600;
}
object fuse {
  name R5_12_47_1_fuse_38;
// downstream 263.80 kva on BS
  phases BN;
  from R5_12_47_1_node_147;
  to R5_12_47_1_node_236;
  current_limit 100;
  status CLOSED;
  mean_replacement_time 3600;
}
object fuse {
  name R5_12_47_1_fuse_39;
// downstream 381.69 kva on CS
  phases CN;
  from R5_12_47_1_node_162;
  to R5_12_47_1_node_243;
  current_limit 200;
  status CLOSED;
  mean_replacement_time 3600;
}
object fuse {
  name R5_12_47_1_fuse_40;
// downstream 320.10 kva on CS
  phases CN;
  from R5_12_47_1_node_134;
  to R5_12_47_1_node_248;
  current_limit 200;
  status CLOSED;
  mean_replacement_time 3600;
}
object fuse {
  name R5_12_47_1_fuse_41;
// downstream 233.46 kva on BS
  phases BN;
  from R5_12_47_1_node_159;
  to R5_12_47_1_node_249;
  current_limit 100;
  status CLOSED;
  mean_replacement_time 3600;
}
object fuse {
  name R5_12_47_1_fuse_42;
// downstream 53.00 kva on BS
  phases BN;
  from R5_12_47_1_node_38;
  to R5_12_47_1_node_251;
  current_limit 40;
  status CLOSED;
  mean_replacement_time 3600;
}
object fuse {
  name R5_12_47_1_fuse_43;
// downstream 37.12 kva on BS
  phases BN;
  from R5_12_47_1_node_40;
  to R5_12_47_1_node_252;
  current_limit 40;
  status CLOSED;
  mean_replacement_time 3600;
}
object fuse {
  name R5_12_47_1_fuse_44;
// downstream 320.77 kva on ABC
  phases ABCN;
  from R5_12_47_1_node_49;
  to R5_12_47_1_node_253;
  current_limit 40;
  status CLOSED;
  mean_replacement_time 3600;
}
object fuse {
  name R5_12_47_1_fuse_45;
// downstream 435.57 kva on ABC
  phases ABCN;
  from R5_12_47_1_node_55;
  to R5_12_47_1_node_254;
  current_limit 65;
  status CLOSED;
  mean_replacement_time 3600;
}
object fuse {
  name R5_12_47_1_fuse_46;
// downstream 318.34 kva on ABC
  phases ABCN;
  from R5_12_47_1_node_67;
  to R5_12_47_1_node_255;
  current_limit 40;
  status CLOSED;
  mean_replacement_time 3600;
}
object fuse {
  name R5_12_47_1_fuse_47;
// downstream 422.91 kva on ABC
  phases ABCN;
  from R5_12_47_1_node_62;
  to R5_12_47_1_node_256;
  current_limit 65;
  status CLOSED;
  mean_replacement_time 3600;
}
object fuse {
  name R5_12_47_1_fuse_48;
// downstream 31.03 kva on BS
  phases BN;
  from R5_12_47_1_node_109;
  to R5_12_47_1_node_257;
  current_limit 40;
  status CLOSED;
  mean_replacement_time 3600;
}
object fuse {
  name R5_12_47_1_fuse_49;
// downstream 37.12 kva on BS
  phases BN;
  from R5_12_47_1_node_108;
  to R5_12_47_1_node_258;
  current_limit 40;
  status CLOSED;
  mean_replacement_time 3600;
}
object fuse {
  name R5_12_47_1_fuse_50;
// downstream 30.23 kva on CS
  phases CN;
  from R5_12_47_1_node_129;
  to R5_12_47_1_node_259;
  current_limit 40;
  status CLOSED;
  mean_replacement_time 3600;
}
object fuse {
  name R5_12_47_1_fuse_51;
// downstream 282.80 kva on ABC
  phases ABCN;
  from R5_12_47_1_node_172;
  to R5_12_47_1_node_260;
  current_limit 40;
  status CLOSED;
  mean_replacement_time 3600;
}
object switch {
  name R5_12_47_1_switch_1;
  phases ABCN;
  from R5_12_47_1_node_23;
  to R5_12_47_1_node_22;
  status CLOSED;
}
object switch {
  name R5_12_47_1_switch_2;
// downstream 12219.48 kva on ABCS
  phases ABCN;
  from R5_12_47_1_node_27;
  to R5_12_47_1_node_24;
  status CLOSED;
}
object switch {
  name R5_12_47_1_switch_3;
// downstream 12219.48 kva on ABCS
  phases ABCN;
  from R5_12_47_1_node_26;
  to R5_12_47_1_node_25;
  status CLOSED;
}
object switch {
  name R5_12_47_1_switch_4;
// downstream 5915.45 kva on ABCS
  phases ABCN;
  from R5_12_47_1_node_48;
  to R5_12_47_1_node_33;
  status CLOSED;
}
object switch {
  name R5_12_47_1_switch_5;
// downstream 199.80 kva on ABC
  phases ABCN;
  from R5_12_47_1_node_182;
  to R5_12_47_1_node_51;
  status CLOSED;
}
object switch {
  name R5_12_47_1_switch_6;
// downstream 4517.83 kva on ABCS
  phases ABCN;
  from R5_12_47_1_node_60;
  to R5_12_47_1_node_69;
  status CLOSED;
}
object switch {
  name R5_12_47_1_switch_7;
// downstream 5726.41 kva on ABCS
  phases ABCN;
  from R5_12_47_1_node_264;
  to R5_12_47_1_node_82;
  status CLOSED;
}
object switch {
  name R5_12_47_1_switch_9;
// downstream 8371.69 kva on ABCS
  phases ABCN;
  from R5_12_47_1_node_130;
  to R5_12_47_1_node_131;
  status CLOSED;
}
object switch {
  name R5_12_47_1_switch_10;
  phases ABCN;
  from R5_12_47_1_node_32;
  to R5_12_47_1_node_170;
  status CLOSED;
}
object switch {
  name R5_12_47_1_switch_11;
// downstream 5821.80 kva on ABCS
  phases ABCN;
  from R5_12_47_1_node_32;
  to R5_12_47_1_node_264;
  status CLOSED;
}
object overhead_line {
  name R5_12_47_1_ol_1;
// downstream 1949.96 kva on ABC
  phases ABCN;
  from R5_12_47_1_node_5;
  to R5_12_47_1_node_2;
  length 89.000;
  configuration ID_58;
}
object overhead_line {
  name R5_12_47_1_ol_2;
// downstream 1949.96 kva on ABC
  phases ABCN;
  from R5_12_47_1_node_2;
  to R5_12_47_1_node_4;
  length 25.000;
  configuration ID_59;
}
object overhead_line {
  name R5_12_47_1_ol_3;
// downstream 2038.15 kva on ABC
  phases ABCN;
  from R5_12_47_1_node_183;
  to R5_12_47_1_node_5;
  length 189.000;
  configuration ID_59;
}
object overhead_line {
  name R5_12_47_1_ol_4;
// downstream 192.90 kva on CS
  phases CN;
  from R5_12_47_1_node_218;
  to R5_12_47_1_node_6;
  length 457.000;
  configuration ID_60;
}
object overhead_line {
  name R5_12_47_1_ol_5;
// downstream 9.32 kva on CS
  phases CN;
  from R5_12_47_1_node_15;
  to R5_12_47_1_node_7;
  length 8.000;
  configuration ID_61;
}
object overhead_line {
  name R5_12_47_1_ol_6;
// downstream 88.62 kva on BS
  phases BN;
  from R5_12_47_1_node_232;
  to R5_12_47_1_node_9;
  length 776.000;
  configuration ID_62;
}
object overhead_line {
  name R5_12_47_1_ol_7;
// downstream 74.09 kva on BCS
  phases BCN;
  from R5_12_47_1_node_212;
  to R5_12_47_1_node_10;
  length 517.000;
  configuration ID_63;
}
object overhead_line {
  name R5_12_47_1_ol_8;
// downstream 77.86 kva on CS
  phases CN;
  from R5_12_47_1_node_217;
  to R5_12_47_1_node_11;
  length 387.000;
  configuration ID_60;
}
object overhead_line {
  name R5_12_47_1_ol_9;
// downstream 46.21 kva on ABC
  phases ABCN;
  from R5_12_47_1_node_187;
  to R5_12_47_1_node_12;
  length 164.000;
  configuration ID_64;
}
object overhead_line {
  name R5_12_47_1_ol_10;
// downstream 282.64 kva on ABC
  phases ABCN;
  from R5_12_47_1_node_52;
  to R5_12_47_1_node_13;
  length 55.000;
  configuration ID_65;
}
object overhead_line {
  name R5_12_47_1_ol_11;
  phases ABCN;
  from R5_12_47_1_node_27;
  to R5_12_47_1_node_14;
  length 45.000;
  configuration ID_66;
}
object overhead_line {
  name R5_12_47_1_ol_12;
// downstream 12034.51 kva on ABCS
  phases ABCN;
  from R5_12_47_1_node_18;
  to R5_12_47_1_node_15;
  length 307.000;
  configuration ID_66;
}
object overhead_line {
  name R5_12_47_1_ol_13;
// downstream 60.81 kva on BS
  phases BN;
  from R5_12_47_1_node_18;
  to R5_12_47_1_node_16;
  length 5.000;
  configuration ID_62;
}
object overhead_line {
  name R5_12_47_1_ol_14;
// downstream 12169.63 kva on ABCS
  phases ABCN;
  from R5_12_47_1_node_23;
  to R5_12_47_1_node_18;
  length 311.000;
  configuration ID_66;
}
object overhead_line {
  name R5_12_47_1_ol_15;
// downstream 26.20 kva on CS
  phases CN;
  from R5_12_47_1_node_15;
  to R5_12_47_1_node_19;
  length 6.000;
  configuration ID_60;
}
object overhead_line {
  name R5_12_47_1_ol_16;
// downstream 59.87 kva on CS
  phases CN;
  from R5_12_47_1_node_195;
  to R5_12_47_1_node_21;
  length 390.000;
  configuration ID_67;
}
object overhead_line {
  name R5_12_47_1_ol_17;
// downstream 12169.63 kva on ABCS
  phases ABCN;
  from R5_12_47_1_node_24;
  to R5_12_47_1_node_23;
  length 123.000;
  configuration ID_66;
}
object overhead_line {
  name R5_12_47_1_ol_18;
// downstream 12219.48 kva on ABCS
  phases ABCN;
  from R5_12_47_1_node_25;
  to R5_12_47_1_node_27;
  length 53.000;
  configuration ID_66;
}
object overhead_line {
  name R5_12_47_1_ol_19;
// downstream 82.25 kva on ABCS
  phases ABCN;
  from R5_12_47_1_node_181;
  to R5_12_47_1_node_28;
  length 345.000;
  configuration ID_59;
}
object overhead_line {
  name R5_12_47_1_ol_20;
// downstream 132.08 kva on ABCS
  phases ABCN;
  from R5_12_47_1_node_45;
  to R5_12_47_1_node_29;
  length 15.000;
  configuration ID_69;
}
object overhead_line {
  name R5_12_47_1_ol_21;
// downstream 24.88 kva on BS
  phases ABCN;
  from R5_12_47_1_node_48;
  to R5_12_47_1_node_31;
  length 16.000;
  configuration ID_69;
}
object overhead_line {
  name R5_12_47_1_ol_22;
// downstream 5821.80 kva on ABCS
  phases ABCN;
  from R5_12_47_1_node_33;
  to R5_12_47_1_node_32;
  length 43.000;
  configuration ID_70;
}
object overhead_line {
  name R5_12_47_1_ol_23;
// downstream 6495.05 kva on ABCS
  phases ABCN;
  from R5_12_47_1_node_35;
  to R5_12_47_1_node_34;
  length 53.000;
  configuration ID_69;
}
object overhead_line {
  name R5_12_47_1_ol_24;
// downstream 6558.91 kva on ABCS
  phases ABCN;
  from R5_12_47_1_node_36;
  to R5_12_47_1_node_35;
  length 175.000;
  configuration ID_66;
}
object overhead_line {
  name R5_12_47_1_ol_25;
// downstream 6772.04 kva on ABCS
  phases ABCN;
  from R5_12_47_1_node_44;
  to R5_12_47_1_node_36;
  length 311.000;
  configuration ID_66;
}
object overhead_line {
  name R5_12_47_1_ol_26;
// downstream 53.00 kva on BS
  phases ABCN;
  from R5_12_47_1_node_34;
  to R5_12_47_1_node_37;
  length 10.000;
  configuration ID_69;
}
object overhead_line {
  name R5_12_47_1_ol_27;
// downstream 53.00 kva on BS
  phases BN;
  from R5_12_47_1_node_37;
  to R5_12_47_1_node_38;
  length 1.000;
  configuration ID_62;
}
object overhead_line {
  name R5_12_47_1_ol_28;
// downstream 7256.92 kva on ABCS
  phases ABCN;
  from R5_12_47_1_node_156;
  to R5_12_47_1_node_39;
  length 461.000;
  configuration ID_66;
}
object overhead_line {
  name R5_12_47_1_ol_29;
// downstream 37.12 kva on BS
  phases BN;
  from R5_12_47_1_node_41;
  to R5_12_47_1_node_40;
  length 12.000;
  configuration ID_62;
}
object overhead_line {
  name R5_12_47_1_ol_30;
// downstream 6442.05 kva on ABCS
  phases ABCN;
  from R5_12_47_1_node_34;
  to R5_12_47_1_node_41;
  length 146.000;
  configuration ID_69;
}
object overhead_line {
  name R5_12_47_1_ol_31;
// downstream 140.37 kva on CS
  phases ABCN;
  from R5_12_47_1_node_44;
  to R5_12_47_1_node_42;
  length 16.000;
  configuration ID_66;
}
object overhead_line {
  name R5_12_47_1_ol_32;
// downstream 61.71 kva on CS
  phases CN;
  from R5_12_47_1_node_174;
  to R5_12_47_1_node_43;
  length 278.000;
  configuration ID_60;
}
object overhead_line {
  name R5_12_47_1_ol_33;
// downstream 6912.42 kva on ABCS
  phases ABCN;
  from R5_12_47_1_node_261;
  to R5_12_47_1_node_44;
  length 146.000;
  configuration ID_66;
}
object overhead_line {
  name R5_12_47_1_ol_34;
// downstream 6087.95 kva on ABCS
  phases ABCN;
  from R5_12_47_1_node_46;
  to R5_12_47_1_node_45;
  length 20.000;
  configuration ID_69;
}
object overhead_line {
  name R5_12_47_1_ol_35;
// downstream 6404.93 kva on ABCS
  phases ABCN;
  from R5_12_47_1_node_41;
  to R5_12_47_1_node_46;
  length 160;
  configuration ID_69;
}
object overhead_line {
  name R5_12_47_1_ol_36;
// downstream 254.04 kva on CS
  phases ABCN;
  from R5_12_47_1_node_46;
  to R5_12_47_1_node_47;
  length 5.000;
  configuration ID_69;
}
object overhead_line {
  name R5_12_47_1_ol_37;
// downstream 5955.87 kva on ABCS
  phases ABCN;
  from R5_12_47_1_node_45;
  to R5_12_47_1_node_48;
  length 207.000;
  configuration ID_71;
}
object overhead_line {
  name R5_12_47_1_ol_38;
// downstream 320.77 kva on ABC
  phases ABCN;
  from R5_12_47_1_node_39;
  to R5_12_47_1_node_49;
  length 2.000;
  configuration ID_66;
}
object overhead_line {
  name R5_12_47_1_ol_39;
// downstream 375.18 kva on ABC
  phases ABCN;
  from R5_12_47_1_node_262;
  to R5_12_47_1_node_50;
  length 181.000;
  configuration ID_65;
}
object overhead_line {
  name R5_12_47_1_ol_40;
// downstream 657.82 kva on ABC
  phases ABCN;
  from R5_12_47_1_node_171;
  to R5_12_47_1_node_52;
  length 132.000;
  configuration ID_65;
}
object overhead_line {
  name R5_12_47_1_ol_41;
// downstream 2555.55 kva on ABCS
  phases ABCN;
  from R5_12_47_1_node_77;
  to R5_12_47_1_node_53;
  length 111.000;
  configuration ID_64;
}
object overhead_line {
  name R5_12_47_1_ol_42;
// downstream 435.57 kva on ABC
  phases ABCN;
  from R5_12_47_1_node_54;
  to R5_12_47_1_node_55;
  length 4.000;
  configuration ID_64;
}
object overhead_line {
  name R5_12_47_1_ol_43;
// downstream 435.57 kva on ABC
  phases ABCN;
  from R5_12_47_1_node_53;
  to R5_12_47_1_node_56;
  length 4.000;
  configuration ID_64;
}
object overhead_line {
  name R5_12_47_1_ol_44;
// downstream 81.28 kva on AS
  phases AN;
  from R5_12_47_1_node_221;
  to R5_12_47_1_node_58;
  length 372.000;
  configuration ID_72;
}
object overhead_line {
  name R5_12_47_1_ol_45;
// downstream 4037.91 kva on ABCS
  phases ABCN;
  from R5_12_47_1_node_63;
  to R5_12_47_1_node_59;
  length 304.000;
  configuration ID_65;
}
object overhead_line {
  name R5_12_47_1_ol_46;
// downstream 4940.74 kva on ABCS
  phases ABCN;
  from R5_12_47_1_node_61;
  to R5_12_47_1_node_60;
  length 20.000;
  configuration ID_65;
}
object overhead_line {
  name R5_12_47_1_ol_47;
// downstream 4940.74 kva on ABCS
  phases ABCN;
  from R5_12_47_1_node_263;
  to R5_12_47_1_node_61;
  length 166.000;
  configuration ID_65;
}
object overhead_line {
  name R5_12_47_1_ol_48;
// downstream 422.91 kva on ABC
  phases ABCN;
  from R5_12_47_1_node_60;
  to R5_12_47_1_node_62;
  length 2.000;
  configuration ID_65;
}
object overhead_line {
  name R5_12_47_1_ol_49;
// downstream 4171.78 kva on ABCS
  phases ABCN;
  from R5_12_47_1_node_68;
  to R5_12_47_1_node_63;
  length 188.000;
  configuration ID_65;
}
object overhead_line {
  name R5_12_47_1_ol_50;
// downstream 133.87 kva on ABC
  phases ABCN;
  from R5_12_47_1_node_63;
  to R5_12_47_1_node_64;
  length 75.000;
  configuration ID_64;
}
object overhead_line {
  name R5_12_47_1_ol_51;
// downstream 108.31 kva on ABC
  phases ABCN;
  from R5_12_47_1_node_59;
  to R5_12_47_1_node_65;
  length 6.000;
  configuration ID_65;
}
object overhead_line {
  name R5_12_47_1_ol_52;
// downstream 318.34 kva on ABC
  phases ABCN;
  from R5_12_47_1_node_59;
  to R5_12_47_1_node_67;
  length 12.000;
  configuration ID_65;
}
object overhead_line {
  name R5_12_47_1_ol_53;
// downstream 4517.83 kva on ABCS
  phases ABCN;
  from R5_12_47_1_node_69;
  to R5_12_47_1_node_68;
  length 402.000;
  configuration ID_65;
}
object overhead_line {
  name R5_12_47_1_ol_54;
// downstream 306.20 kva on ABCS
  phases ABCN;
  from R5_12_47_1_node_68;
  to R5_12_47_1_node_70;
  length 5.000;
  configuration ID_73;
}
object overhead_line {
  name R5_12_47_1_ol_55;
// downstream 2.92 kva on C
  phases CN;
  from R5_12_47_1_node_72;
  to R5_12_47_1_node_71;
  length 385.000;
  configuration ID_60;
}
object overhead_line {
  name R5_12_47_1_ol_56;
// downstream 2942.98 kva on ABCS
  phases ABCN;
  from R5_12_47_1_node_74;
  to R5_12_47_1_node_73;
  length 6.000;
  configuration ID_64;
}
object overhead_line {
  name R5_12_47_1_ol_57;
// downstream 3600.79 kva on ABCS
  phases ABCN;
  from R5_12_47_1_node_59;
  to R5_12_47_1_node_74;
  length 126.000;
  configuration ID_65;
}
object overhead_line {
  name R5_12_47_1_ol_58;
// downstream 2875.58 kva on ABCS
  phases ABCN;
  from R5_12_47_1_node_76;
  to R5_12_47_1_node_75;
  length 227.000;
  configuration ID_59;
}
object overhead_line {
  name R5_12_47_1_ol_59;
// downstream 2555.55 kva on ABCS
  phases ABCN;
  from R5_12_47_1_node_75;
  to R5_12_47_1_node_77;
  length 225.000;
  configuration ID_58;
}
object overhead_line {
  name R5_12_47_1_ol_60;
// downstream 62.65 kva on BS
  phases BN;
  from R5_12_47_1_node_208;
  to R5_12_47_1_node_78;
  length 320.000;
  configuration ID_62;
}
object overhead_line {
  name R5_12_47_1_ol_61;
// downstream 28.64 kva on CS
  phases CN;
  from R5_12_47_1_node_204;
  to R5_12_47_1_node_79;
  length 270.000;
  configuration ID_60;
}
object overhead_line {
  name R5_12_47_1_ol_62;
// downstream 50.56 kva on AS
  phases AN;
  from R5_12_47_1_node_199;
  to R5_12_47_1_node_80;
  length 330.000;
  configuration ID_72;
}
object overhead_line {
  name R5_12_47_1_ol_63;
// downstream 47.72 kva on ABCS
  phases ABCN;
  from R5_12_47_1_node_127;
  to R5_12_47_1_node_81;
  length 172.000;
  configuration ID_66;
}
object overhead_line {
  name R5_12_47_1_ol_64;
// downstream 5726.41 kva on ABCS
  phases ABCN;
  from R5_12_47_1_node_82;
  to R5_12_47_1_node_83;
  length 13.000;
  configuration ID_70;
}
object overhead_line {
  name R5_12_47_1_ol_65;
// downstream 5726.41 kva on ABCS
  phases ABCN;
  from R5_12_47_1_node_83;
  to R5_12_47_1_node_84;
  length 123.000;
  configuration ID_65;
}
object overhead_line {
  name R5_12_47_1_ol_66;
// downstream 69.63 kva on CS
  phases CN;
  from R5_12_47_1_node_85;
  to R5_12_47_1_node_86;
  length 74.000;
  configuration ID_60;
}
object overhead_line {
  name R5_12_47_1_ol_67;
// downstream 71.06 kva on AS
  phases AN;
  from R5_12_47_1_node_84;
  to R5_12_47_1_node_87;
  length 4.000;
  configuration ID_72;
}
object overhead_line {
  name R5_12_47_1_ol_68;
// downstream 5483.30 kva on ABCS
  phases ABCN;
  from R5_12_47_1_node_84;
  to R5_12_47_1_node_89;
  length 161.000;
  configuration ID_65;
}
object overhead_line {
  name R5_12_47_1_ol_69;
// downstream 5372.10 kva on ABCS
  phases ABCN;
  from R5_12_47_1_node_89;
  to R5_12_47_1_node_90;
  length 141.000;
  configuration ID_65;
}
object overhead_line {
  name R5_12_47_1_ol_70;
// downstream 5247.66 kva on ABCS
  phases ABCN;
  from R5_12_47_1_node_90;
  to R5_12_47_1_node_91;
  length 190.000;
  configuration ID_65;
}
object overhead_line {
  name R5_12_47_1_ol_71;
// downstream 5229.02 kva on ABCS
  phases ABCN;
  from R5_12_47_1_node_91;
  to R5_12_47_1_node_92;
  length 210.000;
  configuration ID_65;
}
object overhead_line {
  name R5_12_47_1_ol_72;
// downstream 33.94 kva on CS
  phases CN;
  from R5_12_47_1_node_93;
  to R5_12_47_1_node_94;
  length 161.000;
  configuration ID_60;
}
object overhead_line {
  name R5_12_47_1_ol_73;
// downstream 0.94 kva on C
  phases CN;
  from R5_12_47_1_node_93;
  to R5_12_47_1_node_95;
  length 80.000;
  configuration ID_60;
}
object overhead_line {
  name R5_12_47_1_ol_74;
// downstream 89.56 kva on BS
  phases BN;
  from R5_12_47_1_node_90;
  to R5_12_47_1_node_96;
  length 3.000;
  configuration ID_62;
}
object overhead_line {
  name R5_12_47_1_ol_75;
// downstream 65.08 kva on BS
  phases BN;
  from R5_12_47_1_node_190;
  to R5_12_47_1_node_98;
  length 99.000;
  configuration ID_62;
}
object overhead_line {
  name R5_12_47_1_ol_76;
// downstream 14.88 kva on AS
  phases AN;
  from R5_12_47_1_node_91;
  to R5_12_47_1_node_99;
  length 12.000;
  configuration ID_72;
}
object overhead_line {
  name R5_12_47_1_ol_77;
// downstream 34.89 kva on CS
  phases CN;
  from R5_12_47_1_node_90;
  to R5_12_47_1_node_101;
  length 4.000;
  configuration ID_60;
}
object overhead_line {
  name R5_12_47_1_ol_78;
// downstream 111.19 kva on BS
  phases BN;
  from R5_12_47_1_node_89;
  to R5_12_47_1_node_102;
  length 3.000;
  configuration ID_62;
}
object overhead_line {
  name R5_12_47_1_ol_79;
// downstream 172.05 kva on ACS
  phases ACN;
  from R5_12_47_1_node_84;
  to R5_12_47_1_node_103;
  length 5.000;
  configuration ID_74;
}
object overhead_line {
  name R5_12_47_1_ol_80;
// downstream 11596.06 kva on ABCS
  phases ABCN;
  from R5_12_47_1_node_105;
  to R5_12_47_1_node_104;
  length 268.000;
  configuration ID_66;
}
object overhead_line {
  name R5_12_47_1_ol_81;
// downstream 11873.86 kva on ABCS
  phases ABCN;
  from R5_12_47_1_node_173;
  to R5_12_47_1_node_105;
  length 546.000;
  configuration ID_66;
}
object overhead_line {
  name R5_12_47_1_ol_82;
// downstream 204.95 kva on BS
  phases BN;
  from R5_12_47_1_node_105;
  to R5_12_47_1_node_106;
  length 8.000;
  configuration ID_62;
}
object overhead_line {
  name R5_12_47_1_ol_83;
// downstream 32.42 kva on BS
  phases BN;
  from R5_12_47_1_node_194;
  to R5_12_47_1_node_107;
  length 292.000;
  configuration ID_62;
}
object overhead_line {
  name R5_12_47_1_ol_84;
// downstream 37.12 kva on BS
  phases BN;
  from R5_12_47_1_node_104;
  to R5_12_47_1_node_108;
  length 6.000;
  configuration ID_62;
}
object overhead_line {
  name R5_12_47_1_ol_85;
// downstream 31.03 kva on BS
  phases BN;
  from R5_12_47_1_node_111;
  to R5_12_47_1_node_109;
  length 5.000;
  configuration ID_62;
}
object overhead_line {
  name R5_12_47_1_ol_86;
// downstream 136.70 kva on CS
  phases CN;
  from R5_12_47_1_node_104;
  to R5_12_47_1_node_110;
  length 19.000;
  configuration ID_67;
}
object overhead_line {
  name R5_12_47_1_ol_87;
// downstream 11399.80 kva on ABCS
  phases ABCN;
  from R5_12_47_1_node_104;
  to R5_12_47_1_node_111;
  length 75.000;
  configuration ID_66;
}
object overhead_line {
  name R5_12_47_1_ol_88;
// downstream 26.11 kva on BS
  phases BN;
  from R5_12_47_1_node_9;
  to R5_12_47_1_node_112;
  length 905.000;
  configuration ID_62;
}
object overhead_line {
  name R5_12_47_1_ol_89;
// downstream 54.85 kva on AS
  phases AN;
  from R5_12_47_1_node_198;
  to R5_12_47_1_node_113;
  length 506.000;
  configuration ID_72;
}
object overhead_line {
  name R5_12_47_1_ol_90;
// downstream 54.50 kva on BS
  phases BN;
  from R5_12_47_1_node_240;
  to R5_12_47_1_node_114;
  length 340.000;
  configuration ID_75;
}
object overhead_line {
  name R5_12_47_1_ol_91;
// downstream 47.47 kva on CS
  phases CN;
  from R5_12_47_1_node_242;
  to R5_12_47_1_node_115;
  length 820.000;
  configuration ID_60;
}
object overhead_line {
  name R5_12_47_1_ol_92;
// downstream 55.42 kva on CS
  phases CN;
  from R5_12_47_1_node_117;
  to R5_12_47_1_node_116;
  length 121.000;
  configuration ID_67;
}
object overhead_line {
  name R5_12_47_1_ol_93;
// downstream 86.54 kva on CS
  phases CN;
  from R5_12_47_1_node_244;
  to R5_12_47_1_node_117;
  length 609.000;
  configuration ID_60;
}
object overhead_line {
  name R5_12_47_1_ol_94;
// downstream 273.31 kva on ACS
  phases ACN;
  from R5_12_47_1_node_202;
  to R5_12_47_1_node_119;
  length 88.000;
  configuration ID_77;
}
object overhead_line {
  name R5_12_47_1_ol_95;
// downstream 19.66 kva on AS
  phases AN;
  from R5_12_47_1_node_214;
  to R5_12_47_1_node_120;
  length 294.000;
  configuration ID_72;
}
object overhead_line {
  name R5_12_47_1_ol_96;
// downstream 202.28 kva on ABS
  phases ABN;
  from R5_12_47_1_node_223;
  to R5_12_47_1_node_122;
  length 596.000;
  configuration ID_79;
}
object overhead_line {
  name R5_12_47_1_ol_97;
// downstream 96.83 kva on AS
  phases AN;
  from R5_12_47_1_node_224;
  to R5_12_47_1_node_123;
  length 459.000;
  configuration ID_72;
}
object overhead_line {
  name R5_12_47_1_ol_98;
// downstream 61.35 kva on CS
  phases CN;
  from R5_12_47_1_node_230;
  to R5_12_47_1_node_124;
  length 231.000;
  configuration ID_60;
}
object overhead_line {
  name R5_12_47_1_ol_99;
// downstream 135.06 kva on CS
  phases CN;
  from R5_12_47_1_node_127;
  to R5_12_47_1_node_125;
  length 4.000;
  configuration ID_60;
}
object overhead_line {
  name R5_12_47_1_ol_100;
// downstream 80.98 kva on CS
  phases CN;
  from R5_12_47_1_node_231;
  to R5_12_47_1_node_126;
  length 503.000;
  configuration ID_60;
}
object overhead_line {
  name R5_12_47_1_ol_101;
// downstream 213.13 kva on ABCS
  phases ABCN;
  from R5_12_47_1_node_36;
  to R5_12_47_1_node_127;
  length 242.000;
  configuration ID_66;
}
object overhead_line {
  name R5_12_47_1_ol_102;
  phases CN;
  from R5_12_47_1_node_116;
  to R5_12_47_1_node_128;
  length 2.000;
  configuration ID_67;
}
object overhead_line {
  name R5_12_47_1_ol_103;
// downstream 55.42 kva on CS
  phases CN;
  from R5_12_47_1_node_116;
  to R5_12_47_1_node_129;
  length 373.000;
  configuration ID_67;
}
object overhead_line {
  name R5_12_47_1_ol_104;
// downstream 9074.57 kva on ABCS
  phases ABCN;
  from R5_12_47_1_node_160;
  to R5_12_47_1_node_130;
  length 230.000;
  configuration ID_66;
}
object overhead_line {
  name R5_12_47_1_ol_105;
// downstream 8053.73 kva on ABCS
  phases ABCN;
  from R5_12_47_1_node_136;
  to R5_12_47_1_node_132;
  length 115.000;
  configuration ID_66;
}
object overhead_line {
  name R5_12_47_1_ol_106;
// downstream 8003.62 kva on ABCS
  phases ABCN;
  from R5_12_47_1_node_132;
  to R5_12_47_1_node_133;
  length 172.000;
  configuration ID_66;
}
object overhead_line {
  name R5_12_47_1_ol_107;
// downstream 320.10 kva on CS
  phases CN;
  from R5_12_47_1_node_133;
  to R5_12_47_1_node_134;
  length 17.000;
  configuration ID_60;
}
object overhead_line {
  name R5_12_47_1_ol_108;
// downstream 317.96 kva on AS
  phases AN;
  from R5_12_47_1_node_136;
  to R5_12_47_1_node_135;
  length 13.000;
  configuration ID_72;
}
object overhead_line {
  name R5_12_47_1_ol_109;
...